REMARK  Name = xtal.pdb
REMARK  6 active torsions:
REMARK  status: ('A' for Active; 'I' for Inactive)
REMARK    1  A    between atoms: _5  and  _16
REMARK    2  A    between atoms: _6  and  _14
REMARK    3  A    between atoms: _9  and  _11
REMARK    4  A    between atoms: _14  and  _15
REMARK    5  A    between atoms: _18  and  _21
REMARK    6  A    between atoms: _21  and  _24
REMARK                            x       y       z     vdW  Elec       q    Type
REMARK                         _______ _______ _______ _____ _____    ______ ____
ROOT
ATOM      1  C   UNL     1      22.863  15.286  32.969  0.00  0.00    +0.047 A 
ATOM      2  C   UNL     1      23.324  16.186  33.987  0.00  0.00    +0.128 A 
ATOM      3  C   UNL     1      22.569  17.306  34.348  0.00  0.00    +0.030 A 
ATOM      4  C   UNL     1      21.296  17.527  33.742  0.00  0.00    -0.006 A 
ATOM      5  C   UNL     1      20.451  18.574  34.144  0.00  0.00    +0.025 A 
ATOM      6  C   UNL     1      19.178  18.698  33.539  0.00  0.00    +0.061 A 
ATOM      7  C   UNL     1      18.732  17.798  32.545  0.00  0.00    +0.016 A 
ATOM      8  C   UNL     1      19.546  16.756  32.138  0.00  0.00    +0.009 A 
ATOM      9  C   UNL     1      20.818  16.610  32.735  0.00  0.00    -0.017 A 
ATOM     10  C   UNL     1      21.605  15.517  32.350  0.00  0.00    +0.012 A 
ENDROOT
BRANCH   6  11
ATOM     11  C   UNL     1      18.314  19.790  33.954  0.00  0.00    +0.266 C 
ATOM     12  N   UNL     1      18.773  20.831  34.596  0.00  0.00    -0.250 N 
ATOM     13  H   UNL     1      19.758  20.933  34.811  0.00  0.00    +0.288 HD
ATOM     14  H   UNL     1      18.115  21.515  34.953  0.00  0.00    +0.288 HD
ATOM     15  N   UNL     1      16.978  19.747  33.684  0.00  0.00    -0.288 N 
ATOM     16  H   UNL     1      16.568  18.906  33.301  0.00  0.00    +0.301 HD
ATOM     17  H   UNL     1      16.357  20.447  34.081  0.00  0.00    +0.301 HD
ENDBRANCH   6  11
BRANCH   3  18
ATOM     18  C   UNL     1      23.231  18.279  35.262  0.00  0.00    +0.003 C 
ATOM     19  C   UNL     1      23.351  19.713  35.084  0.00  0.00    +0.120 C 
ATOM     20  N   UNL     1      24.144  20.153  36.098  0.00  0.00    -0.153 NA
ATOM     21  N   UNL     1      23.982  19.216  37.205  0.00  0.00    -0.072 NA
ATOM     22  C   UNL     1      23.843  17.982  36.413  0.00  0.00    +0.159 C 
BRANCH  21  23
ATOM     23  S   UNL     1      24.976  19.186  38.668  0.00  0.00    +0.046 S 
ATOM     24  C   UNL     1      24.435  17.892  39.769  0.00  0.00    +0.216 C 
ATOM     25  O   UNL     1      26.270  18.810  38.154  0.00  0.00    -0.157 OA
ATOM     26  O   UNL     1      24.839  20.513  39.240  0.00  0.00    -0.157 OA
ENDBRANCH  21  23
ENDBRANCH   3  18
BRANCH   2  27
ATOM     27  O   UNL     1      24.553  16.055  34.706  0.00  0.00    -0.494 OA
ATOM     28  C   UNL     1      25.559  15.138  34.287  0.00  0.00    +0.277 C 
ENDBRANCH   2  27
TORSDOF 4
