REMARK  Name = xtal.pdb
REMARK  4 active torsions:
REMARK  status: ('A' for Active; 'I' for Inactive)
REMARK    1  A    between atoms: _2  and  _8
REMARK    2  A    between atoms: _8  and  _21
REMARK    3  A    between atoms: _9  and  _23
REMARK    4  A    between atoms: _10  and  _24
REMARK                            x       y       z     vdW  Elec       q    Type
REMARK                         _______ _______ _______ _____ _____    ______ ____
ROOT
ATOM      1  C   UNL     1      22.148  77.719  82.924  0.00  0.00    +0.016 A 
ATOM      2  C   UNL     1      22.532  78.344  84.108  0.00  0.00    +0.004 A 
ATOM      3  C   UNL     1      21.520  78.723  85.126  0.00  0.00    +0.124 A 
ATOM      4  O   UNL     1      22.238  79.328  86.252  0.00  0.00    -0.491 OA
ATOM      5  C   UNL     1      23.533  79.738  85.775  0.00  0.00    +0.240 C 
ATOM      6  C   UNL     1      20.162  78.456  84.901  0.00  0.00    +0.046 A 
ATOM      7  C   UNL     1      19.765  77.829  83.673  0.00  0.00    +0.012 A 
ATOM      8  C   UNL     1      23.873  78.763  84.676  0.00  0.00    +0.036 C 
ATOM      9  C   UNL     1      24.590  77.458  85.115  0.00  0.00    +0.034 C 
ATOM     10  C   UNL     1      26.080  77.678  85.402  0.00  0.00    +0.109 C 
ATOM     11  N   UNL     1      26.709  78.333  84.253  0.00  0.00    -0.298 N 
ATOM     12  C   UNL     1      26.105  79.555  83.727  0.00  0.00    +0.109 C 
ATOM     13  C   UNL     1      27.654  77.601  83.407  0.00  0.00    +0.239 C 
ATOM     14  O   UNL     1      28.069  78.131  82.430  0.00  0.00    -0.271 OA
ATOM     15  C   UNL     1      24.599  79.384  83.446  0.00  0.00    +0.034 C 
ATOM     16  C   UNL     1      20.771  77.448  82.691  0.00  0.00    -0.003 A 
ENDROOT
BRANCH  13  17
ATOM     17  C   UNL     1      28.264  76.249  83.800  0.00  0.00    +0.068 C 
ATOM     18  C   UNL     1      29.311  75.877  83.080  0.00  0.00    +0.013 C 
BRANCH  18  19
ATOM     19  C   UNL     1      29.804  74.423  82.998  0.00  0.00    -0.025 A 
ATOM     20  C   UNL     1      31.088  74.156  82.473  0.00  0.00    +0.008 A 
ATOM     21  C   UNL     1      31.561  72.815  82.368  0.00  0.00    +0.001 A 
ATOM     22  C   UNL     1      30.725  71.744  82.796  0.00  0.00    +0.000 A 
ATOM     23  C   UNL     1      29.433  72.011  83.311  0.00  0.00    +0.001 A 
ATOM     24  C   UNL     1      28.964  73.345  83.417  0.00  0.00    +0.008 A 
ENDBRANCH  18  19
ENDBRANCH  13  17
BRANCH  16  25
ATOM     25  C   UNL     1      20.376  76.779  81.372  0.00  0.00    +0.164 C 
BRANCH  25  26
ATOM     26  N   UNL     1      20.034  77.834  80.436  0.00  0.00    +0.222 N 
ATOM     27  H   UNL     1      20.843  78.419  80.286  0.00  0.00    +0.200 HD
ATOM     28  H   UNL     1      19.283  78.403  80.803  0.00  0.00    +0.200 HD
ATOM     29  H   UNL     1      19.741  77.456  79.541  0.00  0.00    +0.200 HD
ENDBRANCH  25  26
ENDBRANCH  16  25
TORSDOF 4
