REMARK  Name = xtal.pdb
REMARK  3 active torsions:
REMARK  status: ('A' for Active; 'I' for Inactive)
REMARK    1  A    between atoms: _8  and  _14
REMARK    2  A    between atoms: _9  and  _15
REMARK    3  A    between atoms: _10  and  _20
REMARK                            x       y       z     vdW  Elec       q    Type
REMARK                         _______ _______ _______ _____ _____    ______ ____
ROOT
ATOM      1  F   UNL     1      28.063   9.052  27.628  0.00  0.00    -0.205 F 
ATOM      2  C   UNL     1      27.786  10.343  27.863  0.00  0.00    +0.134 A 
ATOM      3  C   UNL     1      26.691  10.967  27.302  0.00  0.00    +0.052 A 
ATOM      4  C   UNL     1      26.482  12.300  27.578  0.00  0.00    +0.015 A 
ATOM      5  C   UNL     1      27.341  12.987  28.409  0.00  0.00    +0.010 A 
ATOM      6  C   UNL     1      28.425  12.350  28.968  0.00  0.00    +0.003 A 
ATOM      7  C   UNL     1      28.646  11.024  28.690  0.00  0.00    +0.048 A 
ENDROOT
BRANCH   3   8
ATOM      8  C   UNL     1      25.769  10.253  26.447  0.00  0.00    +0.142 A 
ATOM      9  N   UNL     1      25.497   8.965  26.476  0.00  0.00    -0.338 N 
ATOM     10  H   UNL     1      25.926   8.296  27.100  0.00  0.00    +0.167 HD
ATOM     11  C   UNL     1      24.584   8.736  25.485  0.00  0.00    +0.067 A 
ATOM     12  C   UNL     1      24.281   9.911  24.834  0.00  0.00    +0.102 A 
ATOM     13  C   UNL     1      23.384   9.969  23.794  0.00  0.00    +0.064 A 
ATOM     14  C   UNL     1      22.804   8.782  23.414  0.00  0.00    +0.015 A 
ATOM     15  C   UNL     1      23.120   7.599  24.044  0.00  0.00    +0.003 A 
ATOM     16  C   UNL     1      24.007   7.542  25.095  0.00  0.00    +0.028 A 
ATOM     17  N   UNL     1      25.034  10.858  25.466  0.00  0.00    -0.227 NA
BRANCH  13  18
ATOM     18  C   UNL     1      23.015  11.208  23.110  0.00  0.00    +0.244 C 
ATOM     19  O   UNL     1      22.152  11.189  22.241  0.00  0.00    -0.270 OA
ATOM     20  N   UNL     1      23.707  12.302  23.563  0.00  0.00    -0.325 N 
ATOM     21  H   UNL     1      24.386  12.181  24.305  0.00  0.00    +0.145 HD
ATOM     22  H   UNL     1      23.517  13.219  23.177  0.00  0.00    +0.145 HD
ENDBRANCH  13  18
ENDBRANCH   3   8
BRANCH   6  23
ATOM     23  C   UNL     1      29.359  13.051  29.886  0.00  0.00    +0.094 C 
ATOM     24  N   UNL     1      29.601  14.468  29.549  0.00  0.00    +0.232 N 
ATOM     25  H   UNL     1      28.759  15.014  29.659  0.00  0.00    +0.202 HD
ATOM     26  H   UNL     1      29.910  14.525  28.589  0.00  0.00    +0.202 HD
ATOM     27  C   UNL     1      30.673  15.021  30.409  0.00  0.00    +0.130 C 
ATOM     28  C   UNL     1      30.178  15.001  31.835  0.00  0.00    +0.051 C 
ATOM     29  C   UNL     1      29.775  13.603  32.236  0.00  0.00    +0.011 C 
ATOM     30  C   UNL     1      28.753  13.068  31.265  0.00  0.00    +0.059 C 
ENDBRANCH   6  23
TORSDOF 3
